<?xml version="1.0"?>

<!-- generated on Wed Mar  4 08:16:29 2020 by SUMO netconvert Version 0.12.3
<?xml version="1.0" encoding="iso-8859-1"?>

<configuration xmlns:xsi="http://www.w3.org/2001/XMLSchema-instance" xsi:noNamespaceSchemaLocation="http://sumo.sf.net/xsd/netconvertConfiguration.xsd">

    <input>
        <xml-node-files value="/home/girikrish/Documents/projectfolder2/vanet.nod.xml"/>
        <xml-edge-files value="/home/girikrish/Documents/projectfolder2/vanet.edg.xml"/>
    </input>

    <output>
        <output-file value="/home/girikrish/Documents/projectfolder2/vanet.net.xml"/>
    </output>

    <processing>
        <speed-in-kmh value="false"/>
        <remove-geometry value="false"/>
        <remove-isolated value="false"/>
        <no-turnarounds value="false"/>
    </processing>

    <building_defaults>
        <type value="Unknown"/>
        <lanenumber value="2"/>
        <speed value="20"/>
        <priority value="75"/>
    </building_defaults>

    <report>
        <verbose value="true"/>
        <print-options value="false"/>
    </report>

</configuration>
-->

<net>

   <location netOffset="0.00,0.00" convBoundary="0.00,0.00,420.00,140.00" origBoundary="0.00,0.00,420.00,140.00" projParameter="!"/>

   <edge id=":n0_0" function="internal">
      <lanes>
         <lane id=":n0_0_0" depart="0" maxspeed="40.00" length="7.82" shape="72.19,79.19 70.20,77.34 68.47,76.01 67.00,75.22 65.79,74.95"/>
      </lanes>
   </edge>
   <edge id=":n0_1" function="internal">
      <lanes>
         <lane id=":n0_1_0" depart="0" maxspeed="40.00" length="15.64" shape="74.53,76.86 71.95,73.43 71.10,70.00 71.95,66.57 74.53,63.14"/>
      </lanes>
   </edge>
   <edge id=":n0_2" function="internal">
      <lanes>
         <lane id=":n0_2_0" depart="0" maxspeed="40.00" length="4.82" shape="74.53,76.86 74.23,75.40 74.53,74.53 75.40,74.23 76.86,74.53"/>
      </lanes>
   </edge>
   <edge id=":n0_3" function="internal">
      <lanes>
         <lane id=":n0_3_0" depart="0" maxspeed="40.00" length="5.00" shape="79.19,67.81 78.37,68.90 78.10,70.00 78.37,71.10 79.19,72.19"/>
      </lanes>
   </edge>
   <edge id=":n0_4" function="internal">
      <lanes>
         <lane id=":n0_4_0" depart="0" maxspeed="40.00" length="15.55" shape="79.19,67.81 75.68,70.93 72.27,73.16 68.97,74.50 65.79,74.95"/>
      </lanes>
   </edge>
   <edge id=":n0_5" function="internal">
      <lanes>
         <lane id=":n0_5_0" depart="0" maxspeed="40.00" length="12.97" shape="76.86,65.47 73.85,68.18 71.00,70.11 68.32,71.26 65.79,71.65"/>
      </lanes>
   </edge>
   <edge id=":n0_6" function="internal">
      <lanes>
         <lane id=":n0_6_0" depart="0" maxspeed="40.00" length="4.82" shape="76.86,65.47 75.40,65.77 74.53,65.47 74.23,64.60 74.53,63.14"/>
      </lanes>
   </edge>
   <edge id=":n0_7" function="internal">
      <lanes>
         <lane id=":n0_7_0" depart="0" maxspeed="40.00" length="7.82" shape="65.79,65.05 67.00,64.78 68.47,63.99 70.20,62.66 72.19,60.81"/>
      </lanes>
   </edge>
   <edge id=":n0_8" function="internal">
      <lanes>
         <lane id=":n0_8_0" depart="0" maxspeed="40.00" length="10.39" shape="65.79,68.35 67.66,68.02 69.74,67.05 72.03,65.42 74.53,63.14"/>
      </lanes>
   </edge>
   <edge id=":n0_9" function="internal">
      <lanes>
         <lane id=":n0_9_0" depart="0" maxspeed="40.00" length="12.97" shape="65.79,68.35 68.32,68.74 71.00,69.89 73.85,71.82 76.86,74.53"/>
      </lanes>
   </edge>
   <edge id=":n0_10" function="internal">
      <lanes>
         <lane id=":n0_10_0" depart="0" maxspeed="40.00" length="4.82" shape="65.79,68.35 67.02,69.17 67.44,70.00 67.02,70.82 65.79,71.65"/>
      </lanes>
   </edge>
   <edge id=":n1_0" function="internal">
      <lanes>
         <lane id=":n1_0_0" depart="0" maxspeed="40.00" length="6.64" shape="135.05,17.31 134.81,15.20 134.10,14.24 132.92,14.42 131.26,15.74"/>
      </lanes>
   </edge>
   <edge id=":n1_1" function="internal">
      <lanes>
         <lane id=":n1_1_0" depart="0" maxspeed="40.00" length="8.26" shape="138.35,17.31 138.96,9.02"/>
      </lanes>
   </edge>
   <edge id=":n1_11" function="internal">
      <lanes>
         <lane id=":n1_11_0" depart="0" maxspeed="40.00" length="15.33" shape="138.96,9.02 140.77,3.09 143.81,-0.46 148.05,-1.65"/>
      </lanes>
   </edge>
   <edge id=":n1_2" function="internal">
      <lanes>
         <lane id=":n1_2_0" depart="0" maxspeed="40.00" length="0.10" shape="138.35,17.31 139.12,16.16"/>
      </lanes>
   </edge>
   <edge id=":n1_12" function="internal">
      <lanes>
         <lane id=":n1_12_0" depart="0" maxspeed="40.00" length="4.72" shape="139.12,16.16 139.17,16.08 140.00,15.66 140.83,16.08 141.65,17.31"/>
      </lanes>
   </edge>
   <edge id=":n1_3" function="internal">
      <lanes>
         <lane id=":n1_3_0" depart="0" maxspeed="40.00" length="13.39" shape="148.05,4.95 146.69,5.72 145.73,8.04 145.14,11.90 144.95,17.31"/>
      </lanes>
   </edge>
   <edge id=":n1_4" function="internal">
      <lanes>
         <lane id=":n1_4_0" depart="0" maxspeed="40.00" length="20.33" shape="148.05,4.95 144.75,5.62 140.85,7.65 136.35,11.02 131.26,15.74"/>
      </lanes>
   </edge>
   <edge id=":n1_5" function="internal">
      <lanes>
         <lane id=":n1_5_0" depart="0" maxspeed="40.00" length="22.90" shape="148.05,1.65 144.09,2.38 139.59,4.59 134.53,8.26 128.92,13.41"/>
      </lanes>
   </edge>
   <edge id=":n1_6" function="internal">
      <lanes>
         <lane id=":n1_6_0" depart="0" maxspeed="40.00" length="0.10" shape="148.05,1.65 146.90,0.88"/>
      </lanes>
   </edge>
   <edge id=":n1_13" function="internal">
      <lanes>
         <lane id=":n1_13_0" depart="0" maxspeed="40.00" length="4.72" shape="146.90,0.88 146.81,0.83 146.40,0.00 146.81,-0.82 148.05,-1.65"/>
      </lanes>
   </edge>
   <edge id=":n1_7" function="internal">
      <lanes>
         <lane id=":n1_7_0" depart="0" maxspeed="40.00" length="28.06" shape="124.26,8.74 130.88,2.75 137.05,-1.53 142.78,-4.09 148.05,-4.95"/>
      </lanes>
   </edge>
   <edge id=":n1_8" function="internal">
      <lanes>
         <lane id=":n1_8_0" depart="0" maxspeed="40.00" length="25.48" shape="126.59,11.08 132.70,5.51 138.32,1.53 143.43,-0.85 148.05,-1.65"/>
      </lanes>
   </edge>
   <edge id=":n1_9" function="internal">
      <lanes>
         <lane id=":n1_9_0" depart="0" maxspeed="40.00" length="13.77" shape="126.59,11.08 133.18,5.82 140.36,8.47"/>
      </lanes>
   </edge>
   <edge id=":n1_14" function="internal">
      <lanes>
         <lane id=":n1_14_0" depart="0" maxspeed="40.00" length="12.61" shape="140.36,8.47 140.71,8.94 141.65,17.31"/>
      </lanes>
   </edge>
   <edge id=":n1_10" function="internal">
      <lanes>
         <lane id=":n1_10_0" depart="0" maxspeed="40.00" length="0.10" shape="126.59,11.08 127.95,10.80"/>
      </lanes>
   </edge>
   <edge id=":n1_15" function="internal">
      <lanes>
         <lane id=":n1_15_0" depart="0" maxspeed="40.00" length="4.72" shape="127.95,10.80 128.05,10.78 128.92,11.08 129.22,11.95 128.92,13.41"/>
      </lanes>
   </edge>
   <edge id=":n2_0" function="internal">
      <lanes>
         <lane id=":n2_0_0" depart="0" maxspeed="40.00" length="13.39" shape="275.05,17.31 274.86,11.90 274.27,8.04 273.31,5.72 271.95,4.95"/>
      </lanes>
   </edge>
   <edge id=":n2_1" function="internal">
      <lanes>
         <lane id=":n2_1_0" depart="0" maxspeed="40.00" length="9.37" shape="278.35,17.31 281.55,5.87"/>
      </lanes>
   </edge>
   <edge id=":n2_11" function="internal">
      <lanes>
         <lane id=":n2_11_0" depart="0" maxspeed="40.00" length="17.00" shape="281.55,5.87 282.11,5.11 286.82,5.82 293.41,11.08"/>
      </lanes>
   </edge>
   <edge id=":n2_2" function="internal">
      <lanes>
         <lane id=":n2_2_0" depart="0" maxspeed="40.00" length="0.10" shape="278.35,17.31 279.12,16.16"/>
      </lanes>
   </edge>
   <edge id=":n2_12" function="internal">
      <lanes>
         <lane id=":n2_12_0" depart="0" maxspeed="40.00" length="4.72" shape="279.12,16.16 279.17,16.08 280.00,15.66 280.82,16.08 281.65,17.31"/>
      </lanes>
   </edge>
   <edge id=":n2_3" function="internal">
      <lanes>
         <lane id=":n2_3_0" depart="0" maxspeed="40.00" length="6.64" shape="288.74,15.74 287.08,14.42 285.90,14.24 285.19,15.20 284.95,17.31"/>
      </lanes>
   </edge>
   <edge id=":n2_4" function="internal">
      <lanes>
         <lane id=":n2_4_0" depart="0" maxspeed="40.00" length="20.33" shape="288.74,15.74 283.65,11.02 279.15,7.65 275.25,5.62 271.95,4.95"/>
      </lanes>
   </edge>
   <edge id=":n2_5" function="internal">
      <lanes>
         <lane id=":n2_5_0" depart="0" maxspeed="40.00" length="22.90" shape="291.08,13.41 285.47,8.26 280.41,4.59 275.91,2.38 271.95,1.65"/>
      </lanes>
   </edge>
   <edge id=":n2_6" function="internal">
      <lanes>
         <lane id=":n2_6_0" depart="0" maxspeed="40.00" length="0.10" shape="291.08,13.41 290.80,12.05"/>
      </lanes>
   </edge>
   <edge id=":n2_13" function="internal">
      <lanes>
         <lane id=":n2_13_0" depart="0" maxspeed="40.00" length="4.72" shape="290.80,12.05 290.78,11.95 291.08,11.08 291.95,10.78 293.41,11.08"/>
      </lanes>
   </edge>
   <edge id=":n2_7" function="internal">
      <lanes>
         <lane id=":n2_7_0" depart="0" maxspeed="40.00" length="28.06" shape="271.95,-4.95 277.22,-4.09 282.95,-1.53 289.12,2.75 295.74,8.74"/>
      </lanes>
   </edge>
   <edge id=":n2_8" function="internal">
      <lanes>
         <lane id=":n2_8_0" depart="0" maxspeed="40.00" length="25.48" shape="271.95,-1.65 276.57,-0.85 281.68,1.53 287.30,5.51 293.41,11.08"/>
      </lanes>
   </edge>
   <edge id=":n2_9" function="internal">
      <lanes>
         <lane id=":n2_9_0" depart="0" maxspeed="40.00" length="10.21" shape="271.95,-1.65 276.19,-0.46 280.71,7.94"/>
      </lanes>
   </edge>
   <edge id=":n2_14" function="internal">
      <lanes>
         <lane id=":n2_14_0" depart="0" maxspeed="40.00" length="13.39" shape="280.71,7.94 281.04,9.02 281.65,17.31"/>
      </lanes>
   </edge>
   <edge id=":n2_10" function="internal">
      <lanes>
         <lane id=":n2_10_0" depart="0" maxspeed="40.00" length="0.10" shape="271.95,-1.65 273.10,-0.88"/>
      </lanes>
   </edge>
   <edge id=":n2_15" function="internal">
      <lanes>
         <lane id=":n2_15_0" depart="0" maxspeed="40.00" length="4.72" shape="273.10,-0.88 273.19,-0.83 273.60,-0.00 273.19,0.82 271.95,1.65"/>
      </lanes>
   </edge>
   <edge id=":n3_0" function="internal">
      <lanes>
         <lane id=":n3_0_0" depart="0" maxspeed="40.00" length="16.10" shape="135.05,78.05 135.05,73.27 135.05,70.00 135.05,66.73 135.05,61.95"/>
      </lanes>
   </edge>
   <edge id=":n3_1" function="internal">
      <lanes>
         <lane id=":n3_1_0" depart="0" maxspeed="40.00" length="16.10" shape="138.35,78.05 138.35,73.27 138.35,70.00 138.35,66.73 138.35,61.95"/>
      </lanes>
   </edge>
   <edge id=":n3_2" function="internal">
      <lanes>
         <lane id=":n3_2_0" depart="0" maxspeed="40.00" length="8.84" shape="138.35,78.05 138.96,73.81 142.93,69.48"/>
      </lanes>
   </edge>
   <edge id=":n3_11" function="internal">
      <lanes>
         <lane id=":n3_11_0" depart="0" maxspeed="40.00" length="6.80" shape="142.93,69.48 143.81,68.96 148.05,68.35"/>
      </lanes>
   </edge>
   <edge id=":n3_3" function="internal">
      <lanes>
         <lane id=":n3_3_0" depart="0" maxspeed="40.00" length="0.10" shape="138.35,78.05 139.12,76.90"/>
      </lanes>
   </edge>
   <edge id=":n3_12" function="internal">
      <lanes>
         <lane id=":n3_12_0" depart="0" maxspeed="40.00" length="4.72" shape="139.12,76.90 139.17,76.81 140.00,76.40 140.83,76.81 141.65,78.05"/>
      </lanes>
   </edge>
   <edge id=":n3_4" function="internal">
      <lanes>
         <lane id=":n3_4_0" depart="0" maxspeed="40.00" length="5.00" shape="148.05,74.95 146.69,75.14 145.73,75.73 145.14,76.69 144.95,78.05"/>
      </lanes>
   </edge>
   <edge id=":n3_5" function="internal">
      <lanes>
         <lane id=":n3_5_0" depart="0" maxspeed="40.00" length="3.13" shape="148.05,71.65 146.91,71.49"/>
      </lanes>
   </edge>
   <edge id=":n3_13" function="internal">
      <lanes>
         <lane id=":n3_13_0" depart="0" maxspeed="40.00" length="12.51" shape="146.91,71.49 143.81,71.04 140.77,69.23 138.96,66.19 138.35,61.95"/>
      </lanes>
   </edge>
   <edge id=":n3_6" function="internal">
      <lanes>
         <lane id=":n3_6_0" depart="0" maxspeed="40.00" length="0.10" shape="148.05,71.65 146.90,70.88"/>
      </lanes>
   </edge>
   <edge id=":n3_14" function="internal">
      <lanes>
         <lane id=":n3_14_0" depart="0" maxspeed="40.00" length="4.72" shape="146.90,70.88 146.81,70.83 146.40,70.00 146.81,69.18 148.05,68.35"/>
      </lanes>
   </edge>
   <edge id=":n3_7" function="internal">
      <lanes>
         <lane id=":n3_7_0" depart="0" maxspeed="40.00" length="5.00" shape="144.95,61.95 145.14,63.31 145.72,64.28 146.69,64.86 148.05,65.05"/>
      </lanes>
   </edge>
   <edge id=":n3_8" function="internal">
      <lanes>
         <lane id=":n3_8_0" depart="0" maxspeed="40.00" length="16.10" shape="144.95,61.95 144.95,66.73 144.95,70.00 144.95,73.27 144.95,78.05"/>
      </lanes>
   </edge>
   <edge id=":n3_9" function="internal">
      <lanes>
         <lane id=":n3_9_0" depart="0" maxspeed="40.00" length="16.10" shape="141.65,61.95 141.65,66.73 141.65,70.00 141.65,73.27 141.65,78.05"/>
      </lanes>
   </edge>
   <edge id=":n3_10" function="internal">
      <lanes>
         <lane id=":n3_10_0" depart="0" maxspeed="40.00" length="0.10" shape="141.65,61.95 140.88,63.10"/>
      </lanes>
   </edge>
   <edge id=":n3_15" function="internal">
      <lanes>
         <lane id=":n3_15_0" depart="0" maxspeed="40.00" length="4.72" shape="140.88,63.10 140.83,63.19 140.00,63.60 139.17,63.19 138.35,61.95"/>
      </lanes>
   </edge>
   <edge id=":n4_0" function="internal">
      <lanes>
         <lane id=":n4_0_0" depart="0" maxspeed="40.00" length="5.00" shape="275.05,78.05 274.86,76.69 274.28,75.72 273.31,75.14 271.95,74.95"/>
      </lanes>
   </edge>
   <edge id=":n4_1" function="internal">
      <lanes>
         <lane id=":n4_1_0" depart="0" maxspeed="40.00" length="16.10" shape="275.05,78.05 275.05,73.27 275.05,70.00 275.05,66.73 275.05,61.95"/>
      </lanes>
   </edge>
   <edge id=":n4_2" function="internal">
      <lanes>
         <lane id=":n4_2_0" depart="0" maxspeed="40.00" length="16.10" shape="278.35,78.05 278.35,73.27 278.35,70.00 278.35,66.73 278.35,61.95"/>
      </lanes>
   </edge>
   <edge id=":n4_3" function="internal">
      <lanes>
         <lane id=":n4_3_0" depart="0" maxspeed="40.00" length="0.10" shape="278.35,78.05 279.12,76.90"/>
      </lanes>
   </edge>
   <edge id=":n4_11" function="internal">
      <lanes>
         <lane id=":n4_11_0" depart="0" maxspeed="40.00" length="4.72" shape="279.12,76.90 279.17,76.81 280.00,76.40 280.82,76.81 281.65,78.05"/>
      </lanes>
   </edge>
   <edge id=":n4_4" function="internal">
      <lanes>
         <lane id=":n4_4_0" depart="0" maxspeed="40.00" length="16.10" shape="284.95,61.95 284.95,66.73 284.95,70.00 284.95,73.27 284.95,78.05"/>
      </lanes>
   </edge>
   <edge id=":n4_5" function="internal">
      <lanes>
         <lane id=":n4_5_0" depart="0" maxspeed="40.00" length="16.10" shape="281.65,61.95 281.65,66.73 281.65,70.00 281.65,73.27 281.65,78.05"/>
      </lanes>
   </edge>
   <edge id=":n4_6" function="internal">
      <lanes>
         <lane id=":n4_6_0" depart="0" maxspeed="40.00" length="8.84" shape="281.65,61.95 281.04,66.19 277.07,70.52"/>
      </lanes>
   </edge>
   <edge id=":n4_12" function="internal">
      <lanes>
         <lane id=":n4_12_0" depart="0" maxspeed="40.00" length="6.80" shape="277.07,70.52 276.19,71.04 271.95,71.65"/>
      </lanes>
   </edge>
   <edge id=":n4_7" function="internal">
      <lanes>
         <lane id=":n4_7_0" depart="0" maxspeed="40.00" length="0.10" shape="281.65,61.95 280.88,63.10"/>
      </lanes>
   </edge>
   <edge id=":n4_13" function="internal">
      <lanes>
         <lane id=":n4_13_0" depart="0" maxspeed="40.00" length="4.72" shape="280.88,63.10 280.83,63.19 280.00,63.60 279.18,63.19 278.35,61.95"/>
      </lanes>
   </edge>
   <edge id=":n4_8" function="internal">
      <lanes>
         <lane id=":n4_8_0" depart="0" maxspeed="40.00" length="5.00" shape="271.95,65.05 273.31,64.86 274.27,64.27 274.86,63.31 275.05,61.95"/>
      </lanes>
   </edge>
   <edge id=":n4_9" function="internal">
      <lanes>
         <lane id=":n4_9_0" depart="0" maxspeed="40.00" length="3.13" shape="271.95,68.35 273.09,68.51"/>
      </lanes>
   </edge>
   <edge id=":n4_14" function="internal">
      <lanes>
         <lane id=":n4_14_0" depart="0" maxspeed="40.00" length="12.51" shape="273.09,68.51 276.19,68.96 279.23,70.78 281.04,73.81 281.65,78.05"/>
      </lanes>
   </edge>
   <edge id=":n4_10" function="internal">
      <lanes>
         <lane id=":n4_10_0" depart="0" maxspeed="40.00" length="0.10" shape="271.95,68.35 273.10,69.12"/>
      </lanes>
   </edge>
   <edge id=":n4_15" function="internal">
      <lanes>
         <lane id=":n4_15_0" depart="0" maxspeed="40.00" length="4.72" shape="273.10,69.12 273.19,69.17 273.60,70.00 273.19,70.82 271.95,71.65"/>
      </lanes>
   </edge>
   <edge id=":n5_0" function="internal">
      <lanes>
         <lane id=":n5_0_0" depart="0" maxspeed="40.00" length="7.68" shape="354.21,74.95 347.81,79.19"/>
      </lanes>
   </edge>
   <edge id=":n5_1" function="internal">
      <lanes>
         <lane id=":n5_1_0" depart="0" maxspeed="40.00" length="12.97" shape="354.21,71.65 351.68,71.26 349.00,70.11 346.15,68.18 343.14,65.47"/>
      </lanes>
   </edge>
   <edge id=":n5_2" function="internal">
      <lanes>
         <lane id=":n5_2_0" depart="0" maxspeed="40.00" length="4.82" shape="354.21,71.65 352.98,70.83 352.56,70.00 352.98,69.18 354.21,68.35"/>
      </lanes>
   </edge>
   <edge id=":n5_3" function="internal">
      <lanes>
         <lane id=":n5_3_0" depart="0" maxspeed="40.00" length="7.82" shape="347.81,60.81 349.80,62.66 351.53,63.99 353.00,64.78 354.21,65.05"/>
      </lanes>
   </edge>
   <edge id=":n5_4" function="internal">
      <lanes>
         <lane id=":n5_4_0" depart="0" maxspeed="40.00" length="10.39" shape="345.47,63.14 347.97,65.42 350.26,67.05 352.34,68.02 354.21,68.35"/>
      </lanes>
   </edge>
   <edge id=":n5_5" function="internal">
      <lanes>
         <lane id=":n5_5_0" depart="0" maxspeed="40.00" length="15.64" shape="345.47,63.14 348.05,66.57 348.90,70.00 348.05,73.43 345.47,76.86"/>
      </lanes>
   </edge>
   <edge id=":n5_6" function="internal">
      <lanes>
         <lane id=":n5_6_0" depart="0" maxspeed="40.00" length="4.82" shape="345.47,63.14 345.77,64.60 345.47,65.47 344.60,65.77 343.14,65.47"/>
      </lanes>
   </edge>
   <edge id=":n5_7" function="internal">
      <lanes>
         <lane id=":n5_7_0" depart="0" maxspeed="40.00" length="5.00" shape="340.81,72.19 341.63,71.10 341.90,70.00 341.63,68.90 340.81,67.81"/>
      </lanes>
   </edge>
   <edge id=":n5_8" function="internal">
      <lanes>
         <lane id=":n5_8_0" depart="0" maxspeed="40.00" length="12.97" shape="343.14,74.53 346.15,71.82 349.00,69.89 351.68,68.74 354.21,68.35"/>
      </lanes>
   </edge>
   <edge id=":n5_9" function="internal">
      <lanes>
         <lane id=":n5_9_0" depart="0" maxspeed="40.00" length="4.82" shape="343.14,74.53 344.60,74.23 345.47,74.53 345.77,75.40 345.47,76.86"/>
      </lanes>
   </edge>
   <edge id=":n6_0" function="internal">
      <lanes>
         <lane id=":n6_0_0" depart="0" maxspeed="40.00" length="28.06" shape="148.05,144.95 142.78,144.09 137.05,141.53 130.88,137.25 124.26,131.26"/>
      </lanes>
   </edge>
   <edge id=":n6_1" function="internal">
      <lanes>
         <lane id=":n6_1_0" depart="0" maxspeed="40.00" length="25.77" shape="148.05,141.65 141.47,140.66 136.22,137.94 131.52,133.90 126.59,128.92"/>
      </lanes>
   </edge>
   <edge id=":n6_2" function="internal">
      <lanes>
         <lane id=":n6_2_0" depart="0" maxspeed="40.00" length="10.21" shape="148.05,141.65 143.81,140.46 139.29,132.06"/>
      </lanes>
   </edge>
   <edge id=":n6_11" function="internal">
      <lanes>
         <lane id=":n6_11_0" depart="0" maxspeed="40.00" length="13.39" shape="139.29,132.06 138.96,130.98 138.35,122.69"/>
      </lanes>
   </edge>
   <edge id=":n6_3" function="internal">
      <lanes>
         <lane id=":n6_3_0" depart="0" maxspeed="40.00" length="0.10" shape="148.05,141.65 146.90,140.88"/>
      </lanes>
   </edge>
   <edge id=":n6_12" function="internal">
      <lanes>
         <lane id=":n6_12_0" depart="0" maxspeed="40.00" length="4.72" shape="146.90,140.88 146.81,140.83 146.40,140.00 146.81,139.18 148.05,138.35"/>
      </lanes>
   </edge>
   <edge id=":n6_4" function="internal">
      <lanes>
         <lane id=":n6_4_0" depart="0" maxspeed="40.00" length="13.39" shape="144.95,122.69 145.14,128.10 145.73,131.96 146.69,134.28 148.05,135.05"/>
      </lanes>
   </edge>
   <edge id=":n6_5" function="internal">
      <lanes>
         <lane id=":n6_5_0" depart="0" maxspeed="40.00" length="9.37" shape="141.65,122.69 138.45,134.13"/>
      </lanes>
   </edge>
   <edge id=":n6_13" function="internal">
      <lanes>
         <lane id=":n6_13_0" depart="0" maxspeed="40.00" length="17.00" shape="138.45,134.13 137.89,134.89 133.18,134.18 126.59,128.92"/>
      </lanes>
   </edge>
   <edge id=":n6_6" function="internal">
      <lanes>
         <lane id=":n6_6_0" depart="0" maxspeed="40.00" length="0.10" shape="141.65,122.69 140.88,123.84"/>
      </lanes>
   </edge>
   <edge id=":n6_14" function="internal">
      <lanes>
         <lane id=":n6_14_0" depart="0" maxspeed="40.00" length="4.72" shape="140.88,123.84 140.83,123.92 140.00,124.34 139.17,123.92 138.35,122.69"/>
      </lanes>
   </edge>
   <edge id=":n6_7" function="internal">
      <lanes>
         <lane id=":n6_7_0" depart="0" maxspeed="40.00" length="6.64" shape="131.26,124.26 132.92,125.58 134.10,125.76 134.81,124.80 135.05,122.69"/>
      </lanes>
   </edge>
   <edge id=":n6_8" function="internal">
      <lanes>
         <lane id=":n6_8_0" depart="0" maxspeed="40.00" length="20.33" shape="131.26,124.26 136.35,128.98 140.85,132.35 144.75,134.38 148.05,135.05"/>
      </lanes>
   </edge>
   <edge id=":n6_9" function="internal">
      <lanes>
         <lane id=":n6_9_0" depart="0" maxspeed="40.00" length="22.90" shape="128.92,126.59 134.53,131.74 139.59,135.41 144.09,137.62 148.05,138.35"/>
      </lanes>
   </edge>
   <edge id=":n6_10" function="internal">
      <lanes>
         <lane id=":n6_10_0" depart="0" maxspeed="40.00" length="0.10" shape="128.92,126.59 129.20,127.95"/>
      </lanes>
   </edge>
   <edge id=":n6_15" function="internal">
      <lanes>
         <lane id=":n6_15_0" depart="0" maxspeed="40.00" length="4.72" shape="129.20,127.95 129.22,128.05 128.92,128.92 128.05,129.22 126.59,128.92"/>
      </lanes>
   </edge>
   <edge id=":n7_0" function="internal">
      <lanes>
         <lane id=":n7_0_0" depart="0" maxspeed="40.00" length="28.21" shape="295.74,131.26 290.45,136.38 284.94,140.76 278.89,143.80 271.95,144.95"/>
      </lanes>
   </edge>
   <edge id=":n7_1" function="internal">
      <lanes>
         <lane id=":n7_1_0" depart="0" maxspeed="40.00" length="25.48" shape="293.41,128.92 287.30,134.49 281.68,138.47 276.57,140.85 271.95,141.65"/>
      </lanes>
   </edge>
   <edge id=":n7_2" function="internal">
      <lanes>
         <lane id=":n7_2_0" depart="0" maxspeed="40.00" length="13.77" shape="293.41,128.92 286.82,134.18 279.64,131.53"/>
      </lanes>
   </edge>
   <edge id=":n7_11" function="internal">
      <lanes>
         <lane id=":n7_11_0" depart="0" maxspeed="40.00" length="12.61" shape="279.64,131.53 279.29,131.06 278.35,122.69"/>
      </lanes>
   </edge>
   <edge id=":n7_3" function="internal">
      <lanes>
         <lane id=":n7_3_0" depart="0" maxspeed="40.00" length="0.10" shape="293.41,128.92 292.05,129.20"/>
      </lanes>
   </edge>
   <edge id=":n7_12" function="internal">
      <lanes>
         <lane id=":n7_12_0" depart="0" maxspeed="40.00" length="4.72" shape="292.05,129.20 291.95,129.22 291.08,128.92 290.78,128.05 291.08,126.59"/>
      </lanes>
   </edge>
   <edge id=":n7_4" function="internal">
      <lanes>
         <lane id=":n7_4_0" depart="0" maxspeed="40.00" length="6.64" shape="284.95,122.69 285.19,124.80 285.90,125.76 287.08,125.58 288.74,124.26"/>
      </lanes>
   </edge>
   <edge id=":n7_5" function="internal">
      <lanes>
         <lane id=":n7_5_0" depart="0" maxspeed="40.00" length="8.26" shape="281.65,122.69 281.04,130.98"/>
      </lanes>
   </edge>
   <edge id=":n7_13" function="internal">
      <lanes>
         <lane id=":n7_13_0" depart="0" maxspeed="40.00" length="15.33" shape="281.04,130.98 279.23,136.91 276.19,140.46 271.95,141.65"/>
      </lanes>
   </edge>
   <edge id=":n7_6" function="internal">
      <lanes>
         <lane id=":n7_6_0" depart="0" maxspeed="40.00" length="0.10" shape="281.65,122.69 280.88,123.84"/>
      </lanes>
   </edge>
   <edge id=":n7_14" function="internal">
      <lanes>
         <lane id=":n7_14_0" depart="0" maxspeed="40.00" length="4.72" shape="280.88,123.84 280.83,123.92 280.00,124.34 279.18,123.92 278.35,122.69"/>
      </lanes>
   </edge>
   <edge id=":n7_7" function="internal">
      <lanes>
         <lane id=":n7_7_0" depart="0" maxspeed="40.00" length="13.39" shape="271.95,135.05 273.31,134.28 274.27,131.96 274.86,128.10 275.05,122.69"/>
      </lanes>
   </edge>
   <edge id=":n7_8" function="internal">
      <lanes>
         <lane id=":n7_8_0" depart="0" maxspeed="40.00" length="20.33" shape="271.95,135.05 275.25,134.38 279.15,132.35 283.65,128.98 288.74,124.26"/>
      </lanes>
   </edge>
   <edge id=":n7_9" function="internal">
      <lanes>
         <lane id=":n7_9_0" depart="0" maxspeed="40.00" length="22.90" shape="271.95,138.35 275.91,137.62 280.41,135.41 285.47,131.74 291.08,126.59"/>
      </lanes>
   </edge>
   <edge id=":n7_10" function="internal">
      <lanes>
         <lane id=":n7_10_0" depart="0" maxspeed="40.00" length="0.10" shape="271.95,138.35 273.10,139.12"/>
      </lanes>
   </edge>
   <edge id=":n7_15" function="internal">
      <lanes>
         <lane id=":n7_15_0" depart="0" maxspeed="40.00" length="4.72" shape="273.10,139.12 273.19,139.17 273.60,140.00 273.19,140.82 271.95,141.65"/>
      </lanes>
   </edge>
   <edge id=":n8_0" function="internal">
      <lanes>
         <lane id=":n8_0_0" depart="0" maxspeed="40.00" length="4.82" shape="0.00,71.65 -1.24,70.82 -1.65,70.00 -1.24,69.17 0.00,68.35"/>
      </lanes>
   </edge>
   <edge id=":n9_0" function="internal">
      <lanes>
         <lane id=":n9_0_0" depart="0" maxspeed="40.00" length="4.82" shape="420.00,68.35 421.24,69.17 421.65,70.00 421.24,70.82 420.00,71.65"/>
      </lanes>
   </edge>

   <edge id="e01" from="n0" to="n1" priority="75" type="" function="normal">
      <lanes>
         <lane id="e01_0" depart="1" maxspeed="40.00" length="73.63" shape="72.19,60.81 124.26,8.74"/>
         <lane id="e01_1" depart="0" maxspeed="40.00" length="73.63" shape="74.53,63.14 126.59,11.08"/>
      </lanes>
   </edge>
   <edge id="e06" from="n0" to="n6" priority="75" type="" function="normal">
      <lanes>
         <lane id="e06_0" depart="1" maxspeed="40.00" length="73.63" shape="79.19,72.19 131.26,124.26"/>
         <lane id="e06_1" depart="0" maxspeed="40.00" length="73.63" shape="76.86,74.53 128.92,126.59"/>
      </lanes>
   </edge>
   <edge id="e08" from="n0" to="n8" priority="75" type="" function="normal">
      <lanes>
         <lane id="e08_0" depart="1" maxspeed="40.00" length="65.79" shape="65.79,74.95 0.00,74.95"/>
         <lane id="e08_1" depart="0" maxspeed="40.00" length="65.79" shape="65.79,71.65 0.00,71.65"/>
      </lanes>
   </edge>
   <edge id="e10" from="n1" to="n0" priority="75" type="" function="normal">
      <lanes>
         <lane id="e10_0" depart="1" maxspeed="40.00" length="73.63" shape="131.26,15.74 79.19,67.81"/>
         <lane id="e10_1" depart="0" maxspeed="40.00" length="73.63" shape="128.92,13.41 76.86,65.47"/>
      </lanes>
   </edge>
   <edge id="e12" from="n1" to="n2" priority="75" type="" function="normal">
      <lanes>
         <lane id="e12_0" depart="1" maxspeed="40.00" length="123.90" shape="148.05,-4.95 271.95,-4.95"/>
         <lane id="e12_1" depart="0" maxspeed="40.00" length="123.90" shape="148.05,-1.65 271.95,-1.65"/>
      </lanes>
   </edge>
   <edge id="e13" from="n1" to="n3" priority="75" type="" function="normal">
      <lanes>
         <lane id="e13_0" depart="1" maxspeed="40.00" length="44.64" shape="144.95,17.31 144.95,61.95"/>
         <lane id="e13_1" depart="0" maxspeed="40.00" length="44.64" shape="141.65,17.31 141.65,61.95"/>
      </lanes>
   </edge>
   <edge id="e21" from="n2" to="n1" priority="75" type="" function="normal">
      <lanes>
         <lane id="e21_0" depart="1" maxspeed="40.00" length="123.90" shape="271.95,4.95 148.05,4.95"/>
         <lane id="e21_1" depart="0" maxspeed="40.00" length="123.90" shape="271.95,1.65 148.05,1.65"/>
      </lanes>
   </edge>
   <edge id="e24" from="n2" to="n4" priority="75" type="" function="normal">
      <lanes>
         <lane id="e24_0" depart="1" maxspeed="40.00" length="44.64" shape="284.95,17.31 284.95,61.95"/>
         <lane id="e24_1" depart="0" maxspeed="40.00" length="44.64" shape="281.65,17.31 281.65,61.95"/>
      </lanes>
   </edge>
   <edge id="e25" from="n2" to="n5" priority="75" type="" function="normal">
      <lanes>
         <lane id="e25_0" depart="1" maxspeed="40.00" length="73.63" shape="295.74,8.74 347.81,60.81"/>
         <lane id="e25_1" depart="0" maxspeed="40.00" length="73.63" shape="293.41,11.08 345.47,63.14"/>
      </lanes>
   </edge>
   <edge id="e31" from="n3" to="n1" priority="75" type="" function="normal">
      <lanes>