<flows>
<flow id="f0" from="e80" to="e34" begin="0" end="1000" no="10" />
<flow id="f1" from="e95" to="e43" begin="0" end="1000" no="10" />
</flows>
