<flows>
<flow id="f0" from="e06" to="e52" begin="0" end="1000" no="3" />
<flow id="f1" from="e06" to="e42" begin="0" end="1000" no="3" />
<flow id="f2" from="e52" to="e10" begin="0" end="1000" no="3" />
</flows>
